/*--------------------------------*- C++ -*----------------------------------*\
| =========                 |                                                 |
| \\      /  F ield         | OpenFOAM: The Open Source CFD Toolbox           |
|  \\    /   O peration     | Version:  4.x                                   |
|   \\  /    A nd           | Web:      www.OpenFOAM.org                      |
|    \\/     M anipulation  |                                                 |
\*---------------------------------------------------------------------------*/
FoamFile
{
    version     2.0;
    format      ascii;
    class       polyBoundaryMesh;
    location    "constant/polyMesh";
    object      boundary;
}
// * * * * * * * * * * * * * * * * * * * * * * * * * * * * * * * * * * * * * //

8
(
    outlet
    {
        type            patch;
        nFaces          0;
        startFace       3625;
    }
    inlet
    {
        type            patch;
        nFaces          32;
        startFace       3625;
    }
    atmosphere
    {
        type            patch;
        nFaces          104;
        startFace       3657;
    }
    walls
    {
        type            patch;
        nFaces          160;
        startFace       3761;
    }
    procBoundary5to1
    {
        type            processor;
        inGroups        1(processor);
        nFaces          128;
        startFace       3921;
        matchTolerance  0.0001;
        transform       unknown;
        myProcNo        5;
        neighbProcNo    1;
    }
    procBoundary5to3
    {
        type            processor;
        inGroups        1(processor);
        nFaces          1;
        startFace       4049;
        matchTolerance  0.0001;
        transform       unknown;
        myProcNo        5;
        neighbProcNo    3;
    }
    procBoundary5to4
    {
        type            processor;
        inGroups        1(processor);
        nFaces          200;
        startFace       4050;
        matchTolerance  0.0001;
        transform       unknown;
        myProcNo        5;
        neighbProcNo    4;
    }
    procBoundary5to7
    {
        type            processor;
        inGroups        1(processor);
        nFaces          207;
        startFace       4250;
        matchTolerance  0.0001;
        transform       unknown;
        myProcNo        5;
        neighbProcNo    7;
    }
)

// ************************************************************************* //
