/*--------------------------------*- C++ -*----------------------------------*\
| =========                 |                                                 |
| \\      /  F ield         | OpenFOAM: The Open Source CFD Toolbox           |
|  \\    /   O peration     | Version:  4.x                                   |
|   \\  /    A nd           | Web:      www.OpenFOAM.org                      |
|    \\/     M anipulation  |                                                 |
\*---------------------------------------------------------------------------*/
FoamFile
{
    version     2.0;
    format      ascii;
    class       polyBoundaryMesh;
    location    "constant/polyMesh";
    object      boundary;
}
// * * * * * * * * * * * * * * * * * * * * * * * * * * * * * * * * * * * * * //

7
(
    outlet
    {
        type            patch;
        nFaces          0;
        startFace       3278;
    }
    inlet
    {
        type            patch;
        nFaces          32;
        startFace       3278;
    }
    atmosphere
    {
        type            patch;
        nFaces          88;
        startFace       3310;
    }
    walls
    {
        type            patch;
        nFaces          160;
        startFace       3398;
    }
    procBoundary6to2
    {
        type            processor;
        inGroups        1(processor);
        nFaces          127;
        startFace       3558;
        matchTolerance  0.0001;
        transform       unknown;
        myProcNo        6;
        neighbProcNo    2;
    }
    procBoundary6to4
    {
        type            processor;
        inGroups        1(processor);
        nFaces          190;
        startFace       3685;
        matchTolerance  0.0001;
        transform       unknown;
        myProcNo        6;
        neighbProcNo    4;
    }
    procBoundary6to7
    {
        type            processor;
        inGroups        1(processor);
        nFaces          197;
        startFace       3875;
        matchTolerance  0.0001;
        transform       unknown;
        myProcNo        6;
        neighbProcNo    7;
    }
)

// ************************************************************************* //
